3kcf_JZO_C_3
     RDKit          3D

 27 30  0  0  0  0  0  0  0  0999 V2000
   62.8370   85.6760  116.6430 C   0  0  0  0  0  0  0  0  0  0  0  0
   63.1390   86.8830  117.3120 O   0  0  0  0  0  0  0  0  0  0  0  0
   62.3890   87.0060  118.5110 C   0  0  0  0  0  0  0  0  0  0  0  0
   62.7310   88.3040  119.1910 C   0  0  0  0  0  0  0  0  0  0  0  0
   64.0030   88.9130  118.9980 C   0  0  0  0  0  0  0  0  0  0  0  0
   64.3120   90.1290  119.6480 C   0  0  0  0  0  0  0  0  0  0  0  0
   63.3520   90.7430  120.4970 C   0  0  0  0  0  0  0  0  0  0  0  0
   62.0730   90.1390  120.6920 C   0  0  0  0  0  0  0  0  0  0  0  0
   61.7750   88.9140  120.0310 C   0  0  0  0  0  0  0  0  0  0  0  0
   61.0300   90.7540  121.5900 C   0  0  0  0  0  0  0  0  0  0  0  0
   60.5860   92.0490  121.6730 C   0  0  0  0  0  0  0  0  0  0  0  0
   59.5960   92.1010  122.6640 N   0  0  0  0  0  0  0  0  0  0  0  0
   58.8250   93.2970  123.1010 C   0  0  0  0  0  0  0  0  0  0  0  0
   59.4320   90.8310  123.1970 N   0  0  0  0  0  0  0  0  0  0  0  0
   58.4870   90.4600  124.2650 C   0  0  0  0  0  0  0  0  0  0  0  0
   60.2520   89.9930  122.5990 C   0  0  0  0  0  0  0  0  0  0  0  0
   60.3540   88.7930  122.8390 O   0  0  0  0  0  0  0  0  0  0  0  0
   61.0450   93.2410  120.8660 C   0  0  0  0  0  0  0  0  0  0  0  0
   60.9780   93.2340  119.4350 C   0  0  0  0  0  0  0  0  0  0  0  0
   61.3970   94.3750  118.6940 C   0  0  0  0  0  0  0  0  0  0  0  0
   61.8820   95.5240  119.3770 C   0  0  0  0  0  0  0  0  0  0  0  0
   62.2800   96.6320  118.7030 N   0  0  0  0  0  0  0  0  0  0  0  0
   62.7460   97.7510  119.3380 C   0  0  0  0  0  0  0  0  0  0  0  0
   62.8130   97.7530  120.7550 C   0  0  0  0  0  0  0  0  0  0  0  0
   62.4210   96.6500  121.4510 N   0  0  0  0  0  0  0  0  0  0  0  0
   61.9520   95.5330  120.8130 C   0  0  0  0  0  0  0  0  0  0  0  0
   61.5410   94.3980  121.5450 C   0  0  0  0  0  0  0  0  0  0  0  0
  1  2  1  0
  2  3  1  0
  3  4  1  0
  4  5  2  0
  4  9  1  0
  5  6  1  0
  6  7  2  0
  7  8  1  0
  8  9  2  0
  8 10  1  0
 10 11  2  0
 10 16  1  0
 11 12  1  0
 11 18  1  0
 12 13  1  0
 12 14  1  0
 14 15  1  0
 14 16  1  0
 16 17  2  0
 18 19  2  0
 18 27  1  0
 19 20  1  0
 20 21  2  0
 21 22  1  0
 21 26  1  0
 22 23  2  0
 23 24  1  0
 24 25  2  0
 25 26  1  0
 26 27  2  0
M  END

